Warning: m=xx on .subckt line will override multiplier m hierarchy!


Note: Compatibility modes selected: hs


Circuit: **.subckt inv_tb

Doing analysis at TEMP = -40.000000 and TNOM = -40.000000


Initial Transient Solution
--------------------------

Node                                   Voltage
----                                   -------
vdd                                        3.3
vin                                          0
vout                                       3.3
vin#branch                                   0
vdd#branch                        -3.31004e-12


No. of Data Rows : 444
tphl                =  1.010568e-10 targ=  3.012083e-10 trig=  2.001515e-10
tplh                =  9.769739e-11 targ=  1.995459e-10 trig=  1.018485e-10
(tplh+tphl)/2 = 9.937709e-11
Note: Simulation executed from .control section 
