Warning: m=xx on .subckt line will override multiplier m hierarchy!


Note: Compatibility modes selected: hs


Circuit: **.subckt inv_tb

Doing analysis at TEMP = 25.000000 and TNOM = 25.000000


Initial Transient Solution
--------------------------

Node                                   Voltage
----                                   -------
vdd                                        3.3
vin                                          0
vout                                       3.3
vin#branch                                   0
vdd#branch                        -3.31376e-12

 Reference value :  2.92324e-11
No. of Data Rows : 445
tphl                =  1.011076e-10 targ=  3.012591e-10 trig=  2.001515e-10
tplh                =  9.821151e-11 targ=  2.000600e-10 trig=  1.018485e-10
(tplh+tphl)/2 = 9.965956e-11
Note: Simulation executed from .control section 
