Warning: m=xx on .subckt line will override multiplier m hierarchy!


Note: Compatibility modes selected: hs


Circuit: **.subckt inv_tb

Doing analysis at TEMP = -40.000000 and TNOM = -40.000000


Initial Transient Solution
--------------------------

Node                                   Voltage
----                                   -------
vdd                                        3.3
vin                                          0
vout                                       3.3
vin#branch                                   0
vdd#branch                        -3.33673e-12


No. of Data Rows : 434
tphl                =  9.441679e-12 targ=  2.095932e-10 trig=  2.001515e-10
tplh                =  3.805917e-12 targ=  1.056544e-10 trig=  1.018485e-10
(tplh+tphl)/2 = 6.623798e-12
Note: Simulation executed from .control section 
