Warning: m=xx on .subckt line will override multiplier m hierarchy!


Note: Compatibility modes selected: hs


Circuit: **.subckt inv_tb

Doing analysis at TEMP = 125.000000 and TNOM = 125.000000


Initial Transient Solution
--------------------------

Node                                   Voltage
----                                   -------
vdd                                        3.3
vin                                          0
vout                                       3.3
vin#branch                                   0
vdd#branch                        -1.98239e-11


No. of Data Rows : 433
tphl                =  1.543724e-11 targ=  2.155888e-10 trig=  2.001515e-10
tplh                =  7.241646e-12 targ=  1.090901e-10 trig=  1.018485e-10
(tplh+tphl)/2 = 1.133944e-11
Note: Simulation executed from .control section 
