Warning: m=xx on .subckt line will override multiplier m hierarchy!


Note: Compatibility modes selected: hs


Circuit: **.subckt inv_tb

Doing analysis at TEMP = 125.000000 and TNOM = 125.000000


Initial Transient Solution
--------------------------

Node                                   Voltage
----                                   -------
vdd                                        3.3
vin                                          0
vout                                       3.3
vin#branch                                   0
vdd#branch                        -4.13064e-11


No. of Data Rows : 433
tphl                =  1.849865e-11 targ=  2.186502e-10 trig=  2.001515e-10
tplh                =  6.299016e-12 targ=  1.081475e-10 trig=  1.018485e-10
(tplh+tphl)/2 = 1.239883e-11
Note: Simulation executed from .control section 
