Warning: m=xx on .subckt line will override multiplier m hierarchy!


Note: Compatibility modes selected: hs


Circuit: **.subckt inv_tb

Doing analysis at TEMP = 125.000000 and TNOM = 125.000000


Initial Transient Solution
--------------------------

Node                                   Voltage
----                                   -------
vdd                                        3.3
vin                                          0
vout                                   3.29999
vin#branch                                   0
vdd#branch                        -1.36855e-08


No. of Data Rows : 453
tphl                =  1.571808e-11 targ=  2.158696e-10 trig=  2.001515e-10
tplh                =  8.442429e-12 targ=  1.102909e-10 trig=  1.018485e-10
(tplh+tphl)/2 = 1.208025e-11
Note: Simulation executed from .control section 
