Warning: m=xx on .subckt line will override multiplier m hierarchy!


Note: Compatibility modes selected: hs


Circuit: **.subckt inv_tb

Doing analysis at TEMP = -40.000000 and TNOM = -40.000000


Initial Transient Solution
--------------------------

Node                                   Voltage
----                                   -------
vdd                                        3.3
vin                                          0
vout                                       3.3
vin#branch                                   0
vdd#branch                        -3.31065e-12

 Reference value :  1.62647e-10
No. of Data Rows : 452
tphl                =  1.704558e-11 targ=  2.171971e-10 trig=  2.001515e-10
tplh                =  7.010558e-12 targ=  1.088590e-10 trig=  1.018485e-10
(tplh+tphl)/2 = 1.202807e-11
Note: Simulation executed from .control section 
