Warning: m=xx on .subckt line will override multiplier m hierarchy!


Note: Compatibility modes selected: hs


Circuit: **.subckt inv_tb

Doing analysis at TEMP = 25.000000 and TNOM = 25.000000


Initial Transient Solution
--------------------------

Node                                   Voltage
----                                   -------
vdd                                        3.3
vin                                          0
vout                                       3.3
vin#branch                                   0
vdd#branch                        -3.33364e-12


No. of Data Rows : 431
tphl                =  1.404198e-11 targ=  2.141935e-10 trig=  2.001515e-10
tplh                =  5.238648e-12 targ=  1.070871e-10 trig=  1.018485e-10
(tplh+tphl)/2 = 9.640314e-12
Note: Simulation executed from .control section 
