Warning: m=xx on .subckt line will override multiplier m hierarchy!


Note: Compatibility modes selected: hs


Circuit: **.subckt inv_tb

Doing analysis at TEMP = 125.000000 and TNOM = 125.000000


Initial Transient Solution
--------------------------

Node                                   Voltage
----                                   -------
vdd                                        3.3
vin                                          0
vout                                       3.3
vin#branch                                   0
vdd#branch                        -4.87507e-12


No. of Data Rows : 433
tphl                =  2.855420e-11 targ=  2.287057e-10 trig=  2.001515e-10
tplh                =  1.200633e-11 targ=  1.138548e-10 trig=  1.018485e-10
(tplh+tphl)/2 = 2.028026e-11
Note: Simulation executed from .control section 
