Warning: m=xx on .subckt line will override multiplier m hierarchy!


Note: Compatibility modes selected: hs


Circuit: **.subckt inv_tb

Doing analysis at TEMP = 125.000000 and TNOM = 125.000000


Initial Transient Solution
--------------------------

Node                                   Voltage
----                                   -------
vdd                                        3.3
vin                                          0
vout                                       3.3
vin#branch                                   0
vdd#branch                        -4.60363e-10


No. of Data Rows : 447
tphl                =  1.909711e-11 targ=  2.192486e-10 trig=  2.001515e-10
tplh                =  6.930116e-12 targ=  1.087786e-10 trig=  1.018485e-10
(tplh+tphl)/2 = 1.301361e-11
Note: Simulation executed from .control section 
