Warning: m=xx on .subckt line will override multiplier m hierarchy!


Note: Compatibility modes selected: hs


Circuit: **.subckt inv_tb

Doing analysis at TEMP = 25.000000 and TNOM = 25.000000


Initial Transient Solution
--------------------------

Node                                   Voltage
----                                   -------
vdd                                        3.3
vin                                          0
vout                                       3.3
vin#branch                                   0
vdd#branch                        -3.31044e-12


No. of Data Rows : 433
tphl                =  4.169613e-11 targ=  2.418477e-10 trig=  2.001515e-10
tplh                =  1.557939e-11 targ=  1.174279e-10 trig=  1.018485e-10
(tplh+tphl)/2 = 2.863776e-11
Note: Simulation executed from .control section 
