Warning: m=xx on .subckt line will override multiplier m hierarchy!


Note: Compatibility modes selected: hs


Circuit: **.subckt inv_tb

Doing analysis at TEMP = 125.000000 and TNOM = 125.000000


Initial Transient Solution
--------------------------

Node                                   Voltage
----                                   -------
vdd                                        3.3
vin                                          0
vout                                       3.3
vin#branch                                   0
vdd#branch                        -5.40575e-10

 Reference value :  8.00000e-14 Reference value :  8.43737e-13
No. of Data Rows : 453
tphl                =  2.399776e-11 targ=  2.241493e-10 trig=  2.001515e-10
tplh                =  1.237639e-11 targ=  1.142249e-10 trig=  1.018485e-10
(tplh+tphl)/2 = 1.818707e-11
Note: Simulation executed from .control section 
