Warning: m=xx on .subckt line will override multiplier m hierarchy!


Note: Compatibility modes selected: hs


Circuit: **.subckt inv_tb

Doing analysis at TEMP = 125.000000 and TNOM = 125.000000


Initial Transient Solution
--------------------------

Node                                   Voltage
----                                   -------
vdd                                        3.3
vin                                          0
vout                                       3.3
vin#branch                                   0
vdd#branch                        -6.95771e-11

 Reference value :  4.00000e-14
No. of Data Rows : 457
tphl                =  2.715971e-11 targ=  2.273112e-10 trig=  2.001515e-10
tplh                =  1.440374e-11 targ=  1.162522e-10 trig=  1.018485e-10
(tplh+tphl)/2 = 2.078172e-11
Note: Simulation executed from .control section 
