Warning: m=xx on .subckt line will override multiplier m hierarchy!


Note: Compatibility modes selected: hs


Circuit: **.subckt inv_tb

Doing analysis at TEMP = -40.000000 and TNOM = -40.000000


Initial Transient Solution
--------------------------

Node                                   Voltage
----                                   -------
vdd                                        3.3
vin                                          0
vout                                       3.3
vin#branch                                   0
vdd#branch                        -3.31069e-12


No. of Data Rows : 434
tphl                =  1.328040e-11 targ=  2.134319e-10 trig=  2.001515e-10
tplh                =  4.852881e-12 targ=  1.067014e-10 trig=  1.018485e-10
(tplh+tphl)/2 = 9.066641e-12
Note: Simulation executed from .control section 
