Warning: m=xx on .subckt line will override multiplier m hierarchy!


Note: Compatibility modes selected: hs


Circuit: **.subckt inv_tb

Doing analysis at TEMP = 25.000000 and TNOM = 25.000000


Initial Transient Solution
--------------------------

Node                                   Voltage
----                                   -------
vdd                                        3.3
vin                                          0
vout                                       3.3
vin#branch                                   0
vdd#branch                        -4.66351e-12


No. of Data Rows : 455
tphl                =  1.722328e-11 targ=  2.173748e-10 trig=  2.001515e-10
tplh                =  7.657085e-12 targ=  1.095056e-10 trig=  1.018485e-10
(tplh+tphl)/2 = 1.244018e-11
Note: Simulation executed from .control section 
