Warning: m=xx on .subckt line will override multiplier m hierarchy!


Note: Compatibility modes selected: hs


Circuit: **.subckt inv_tb

Doing analysis at TEMP = 125.000000 and TNOM = 125.000000


Initial Transient Solution
--------------------------

Node                                   Voltage
----                                   -------
vdd                                        3.3
vin                                          0
vout                                       3.3
vin#branch                                   0
vdd#branch                        -4.24358e-12

 Reference value :  2.00000e-14
No. of Data Rows : 446
tphl                =  7.594959e-11 targ=  2.761011e-10 trig=  2.001515e-10
tplh                =  3.705018e-11 targ=  1.388987e-10 trig=  1.018485e-10
(tplh+tphl)/2 = 5.649989e-11
Note: Simulation executed from .control section 
