Warning: m=xx on .subckt line will override multiplier m hierarchy!


Note: Compatibility modes selected: hs


Circuit: **.subckt inv_tb

Doing analysis at TEMP = 25.000000 and TNOM = 25.000000


Initial Transient Solution
--------------------------

Node                                   Voltage
----                                   -------
vdd                                        3.3
vin                                          0
vout                                       3.3
vin#branch                                   0
vdd#branch                        -1.34757e-11

 Reference value :  2.00000e-14 Reference value :  6.40000e-13
No. of Data Rows : 433
tphl                =  8.783701e-12 targ=  2.089352e-10 trig=  2.001515e-10
tplh                =  3.463088e-12 targ=  1.053116e-10 trig=  1.018485e-10
(tplh+tphl)/2 = 6.123395e-12
Note: Simulation executed from .control section 
