Warning: m=xx on .subckt line will override multiplier m hierarchy!


Note: Compatibility modes selected: hs


Circuit: **.subckt inv_tb

Doing analysis at TEMP = -40.000000 and TNOM = -40.000000


Initial Transient Solution
--------------------------

Node                                   Voltage
----                                   -------
vdd                                        3.3
vin                                          0
vout                                       3.3
vin#branch                                   0
vdd#branch                        -3.31024e-12

 Reference value :  2.00000e-14
No. of Data Rows : 454
tphl                =  1.010573e-10 targ=  3.012088e-10 trig=  2.001515e-10
tplh                =  9.815916e-11 targ=  2.000076e-10 trig=  1.018485e-10
(tplh+tphl)/2 = 9.960823e-11
Note: Simulation executed from .control section 
