Warning: m=xx on .subckt line will override multiplier m hierarchy!


Note: Compatibility modes selected: hs


Circuit: **.subckt inv_tb

Doing analysis at TEMP = -40.000000 and TNOM = -40.000000


Initial Transient Solution
--------------------------

Node                                   Voltage
----                                   -------
vdd                                        3.3
vin                                          0
vout                                       3.3
vin#branch                                   0
vdd#branch                        -3.31021e-12

 Reference value :  1.00000e-14
No. of Data Rows : 439
tphl                =  3.030374e-11 targ=  2.304553e-10 trig=  2.001515e-10
tplh                =  1.298535e-11 targ=  1.148338e-10 trig=  1.018485e-10
(tplh+tphl)/2 = 2.164455e-11
Note: Simulation executed from .control section 
