Warning: m=xx on .subckt line will override multiplier m hierarchy!


Note: Compatibility modes selected: hs


Circuit: **.subckt inv_tb

Doing analysis at TEMP = 25.000000 and TNOM = 25.000000


Initial Transient Solution
--------------------------

Node                                   Voltage
----                                   -------
vdd                                        3.3
vin                                          0
vout                                       3.3
vin#branch                                   0
vdd#branch                        -1.08355e-11


No. of Data Rows : 433
tphl                =  1.139735e-11 targ=  2.115489e-10 trig=  2.001515e-10
tplh                =  5.243011e-12 targ=  1.070915e-10 trig=  1.018485e-10
(tplh+tphl)/2 = 8.320180e-12
Note: Simulation executed from .control section 
