Warning: m=xx on .subckt line will override multiplier m hierarchy!


Note: Compatibility modes selected: hs


Circuit: **.subckt inv_tb

Doing analysis at TEMP = 25.000000 and TNOM = 25.000000


Initial Transient Solution
--------------------------

Node                                   Voltage
----                                   -------
vdd                                        3.3
vin                                          0
vout                                       3.3
vin#branch                                   0
vdd#branch                        -3.68471e-12


No. of Data Rows : 456
tphl                =  3.998965e-11 targ=  2.401412e-10 trig=  2.001515e-10
tplh                =  2.783751e-11 targ=  1.296860e-10 trig=  1.018485e-10
(tplh+tphl)/2 = 3.391358e-11
Note: Simulation executed from .control section 
