Warning: m=xx on .subckt line will override multiplier m hierarchy!


Note: Compatibility modes selected: hs


Circuit: **.subckt inv_tb

Doing analysis at TEMP = -40.000000 and TNOM = -40.000000


Initial Transient Solution
--------------------------

Node                                   Voltage
----                                   -------
vdd                                        3.3
vin                                          0
vout                                       3.3
vin#branch                                   0
vdd#branch                        -3.31002e-12

 Reference value :  4.00000e-14 Reference value :  6.40000e-13 Reference value :  1.44800e-12 Reference value :  7.96000e-12 Reference value :  1.19600e-11 Reference value :  1.89600e-11 Reference value :  2.69600e-11 Reference value :  3.49600e-11
No. of Data Rows : 433
tphl                =  1.353813e-11 targ=  2.136896e-10 trig=  2.001515e-10
tplh                =  4.498716e-12 targ=  1.063472e-10 trig=  1.018485e-10
(tplh+tphl)/2 = 9.018423e-12
Note: Simulation executed from .control section 
