Warning: m=xx on .subckt line will override multiplier m hierarchy!


Note: Compatibility modes selected: hs


Circuit: **.subckt inv_tb

Doing analysis at TEMP = 25.000000 and TNOM = 25.000000


Initial Transient Solution
--------------------------

Node                                   Voltage
----                                   -------
vdd                                        3.3
vin                                          0
vout                                       3.3
vin#branch                                   0
vdd#branch                        -1.34938e-11


No. of Data Rows : 431
tphl                =  1.037771e-11 targ=  2.105292e-10 trig=  2.001515e-10
tplh                =  3.892976e-12 targ=  1.057415e-10 trig=  1.018485e-10
(tplh+tphl)/2 = 7.135343e-12
Note: Simulation executed from .control section 
