Warning: m=xx on .subckt line will override multiplier m hierarchy!


Note: Compatibility modes selected: hs


Circuit: **.subckt inv_tb

Doing analysis at TEMP = 25.000000 and TNOM = 25.000000


Initial Transient Solution
--------------------------

Node                                   Voltage
----                                   -------
vdd                                        3.3
vin                                          0
vout                                       3.3
vin#branch                                   0
vdd#branch                        -3.31066e-12


No. of Data Rows : 442
tphl                =  4.776709e-11 targ=  2.479186e-10 trig=  2.001515e-10
tplh                =  1.871277e-11 targ=  1.205613e-10 trig=  1.018485e-10
(tplh+tphl)/2 = 3.323993e-11
Note: Simulation executed from .control section 
