Warning: m=xx on .subckt line will override multiplier m hierarchy!


Note: Compatibility modes selected: hs


Circuit: **.subckt inv_tb

Doing analysis at TEMP = 25.000000 and TNOM = 25.000000


Initial Transient Solution
--------------------------

Node                                   Voltage
----                                   -------
vdd                                        3.3
vin                                          0
vout                                       3.3
vin#branch                                   0
vdd#branch                        -4.11544e-12

 Reference value :  2.00000e-14
No. of Data Rows : 449
tphl                =  1.438223e-11 targ=  2.145337e-10 trig=  2.001515e-10
tplh                =  4.608139e-12 targ=  1.064566e-10 trig=  1.018485e-10
(tplh+tphl)/2 = 9.495184e-12
Note: Simulation executed from .control section 
