Warning: m=xx on .subckt line will override multiplier m hierarchy!


Note: Compatibility modes selected: hs


Circuit: **.subckt inv_tb

Doing analysis at TEMP = 25.000000 and TNOM = 25.000000


Initial Transient Solution
--------------------------

Node                                   Voltage
----                                   -------
vdd                                        3.3
vin                                          0
vout                                       3.3
vin#branch                                   0
vdd#branch                        -3.31026e-12

 Reference value :  4.00000e-14 Reference value :  6.40000e-13
No. of Data Rows : 434
tphl                =  4.100526e-11 targ=  2.411568e-10 trig=  2.001515e-10
tplh                =  2.056348e-11 targ=  1.224120e-10 trig=  1.018485e-10
(tplh+tphl)/2 = 3.078437e-11
Note: Simulation executed from .control section 
