Warning: m=xx on .subckt line will override multiplier m hierarchy!


Note: Compatibility modes selected: hs


Circuit: **.subckt inv_tb

Doing analysis at TEMP = -40.000000 and TNOM = -40.000000


Initial Transient Solution
--------------------------

Node                                   Voltage
----                                   -------
vdd                                        3.3
vin                                          0
vout                                       3.3
vin#branch                                   0
vdd#branch                        -3.31013e-12

 Reference value :  4.00000e-14 Reference value :  7.91340e-13
No. of Data Rows : 442
tphl                =  3.335354e-11 targ=  2.335051e-10 trig=  2.001515e-10
tplh                =  1.150516e-11 targ=  1.133536e-10 trig=  1.018485e-10
(tplh+tphl)/2 = 2.242935e-11
Note: Simulation executed from .control section 
