Warning: m=xx on .subckt line will override multiplier m hierarchy!


Note: Compatibility modes selected: hs


Circuit: **.subckt inv_tb

Doing analysis at TEMP = 125.000000 and TNOM = 125.000000


Initial Transient Solution
--------------------------

Node                                   Voltage
----                                   -------
vdd                                        3.3
vin                                          0
vout                                   3.29999
vin#branch                                   0
vdd#branch                        -4.86572e-10


No. of Data Rows : 433
tphl                =  1.152322e-11 targ=  2.116747e-10 trig=  2.001515e-10
tplh                =  5.223476e-12 targ=  1.070720e-10 trig=  1.018485e-10
(tplh+tphl)/2 = 8.373348e-12
Note: Simulation executed from .control section 
