Warning: m=xx on .subckt line will override multiplier m hierarchy!


Note: Compatibility modes selected: hs


Circuit: **.subckt inv_tb

Doing analysis at TEMP = 25.000000 and TNOM = 25.000000


Initial Transient Solution
--------------------------

Node                                   Voltage
----                                   -------
vdd                                        3.3
vin                                          0
vout                                       3.3
vin#branch                                   0
vdd#branch                        -3.31289e-12

 Reference value :  8.00000e-14 Reference value :  1.04331e-12
No. of Data Rows : 433
tphl                =  4.257753e-11 targ=  2.427290e-10 trig=  2.001515e-10
tplh                =  2.062707e-11 targ=  1.224756e-10 trig=  1.018485e-10
(tplh+tphl)/2 = 3.160230e-11
Note: Simulation executed from .control section 
