Warning: m=xx on .subckt line will override multiplier m hierarchy!


Note: Compatibility modes selected: hs


Circuit: **.subckt inv_tb

Doing analysis at TEMP = 125.000000 and TNOM = 125.000000


Initial Transient Solution
--------------------------

Node                                   Voltage
----                                   -------
vdd                                        3.3
vin                                          0
vout                                       3.3
vin#branch                                   0
vdd#branch                        -2.10689e-10


No. of Data Rows : 433
tphl                =  1.667743e-11 targ=  2.168289e-10 trig=  2.001515e-10
tplh                =  7.004143e-12 targ=  1.088526e-10 trig=  1.018485e-10
(tplh+tphl)/2 = 1.184079e-11
Note: Simulation executed from .control section 
