Warning: m=xx on .subckt line will override multiplier m hierarchy!


Note: Compatibility modes selected: hs


Circuit: **.subckt inv_tb

Doing analysis at TEMP = 25.000000 and TNOM = 25.000000


Initial Transient Solution
--------------------------

Node                                   Voltage
----                                   -------
vdd                                        3.3
vin                                          0
vout                                       3.3
vin#branch                                   0
vdd#branch                        -3.31542e-12


No. of Data Rows : 454
tphl                =  2.217473e-11 targ=  2.223262e-10 trig=  2.001515e-10
tplh                =  1.027278e-11 targ=  1.121213e-10 trig=  1.018485e-10
(tplh+tphl)/2 = 1.622375e-11
Note: Simulation executed from .control section 
