Warning: m=xx on .subckt line will override multiplier m hierarchy!


Note: Compatibility modes selected: hs


Circuit: **.subckt inv_tb

Doing analysis at TEMP = 125.000000 and TNOM = 125.000000


Initial Transient Solution
--------------------------

Node                                   Voltage
----                                   -------
vdd                                        3.3
vin                                          0
vout                                       3.3
vin#branch                                   0
vdd#branch                        -7.39571e-12


No. of Data Rows : 458
tphl                =  1.012305e-10 targ=  3.013821e-10 trig=  2.001515e-10
tplh                =  9.831577e-11 targ=  2.001643e-10 trig=  1.018485e-10
(tplh+tphl)/2 = 9.977313e-11
Note: Simulation executed from .control section 
