Warning: m=xx on .subckt line will override multiplier m hierarchy!


Note: Compatibility modes selected: hs


Circuit: **.subckt inv_tb

Doing analysis at TEMP = -40.000000 and TNOM = -40.000000


Initial Transient Solution
--------------------------

Node                                   Voltage
----                                   -------
vdd                                        3.3
vin                                          0
vout                                       3.3
vin#branch                                   0
vdd#branch                        -3.31005e-12

 Reference value :  2.59585e-10 Reference value :  2.68585e-10
No. of Data Rows : 455
tphl                =  1.010499e-10 targ=  3.012014e-10 trig=  2.001515e-10
tplh                =  9.502771e-11 targ=  1.968762e-10 trig=  1.018485e-10
(tplh+tphl)/2 = 9.803881e-11
Note: Simulation executed from .control section 
