Warning: m=xx on .subckt line will override multiplier m hierarchy!


Note: Compatibility modes selected: hs


Circuit: **.subckt inv_tb

Doing analysis at TEMP = 125.000000 and TNOM = 125.000000


Initial Transient Solution
--------------------------

Node                                   Voltage
----                                   -------
vdd                                        3.3
vin                                          0
vout                                       3.3
vin#branch                                   0
vdd#branch                        -1.44159e-11


No. of Data Rows : 455
tphl                =  3.010143e-11 targ=  2.302529e-10 trig=  2.001515e-10
tplh                =  1.299410e-11 targ=  1.148426e-10 trig=  1.018485e-10
(tplh+tphl)/2 = 2.154776e-11
Note: Simulation executed from .control section 
