Warning: m=xx on .subckt line will override multiplier m hierarchy!


Note: Compatibility modes selected: hs


Circuit: **.subckt inv_tb

Doing analysis at TEMP = 25.000000 and TNOM = 25.000000


Initial Transient Solution
--------------------------

Node                                   Voltage
----                                   -------
vdd                                        3.3
vin                                          0
vout                                       3.3
vin#branch                                   0
vdd#branch                        -3.38854e-12


No. of Data Rows : 445
tphl                =  4.044312e-11 targ=  2.405946e-10 trig=  2.001515e-10
tplh                =  2.002970e-11 targ=  1.218782e-10 trig=  1.018485e-10
(tplh+tphl)/2 = 3.023641e-11
Note: Simulation executed from .control section 
