Warning: m=xx on .subckt line will override multiplier m hierarchy!


Note: Compatibility modes selected: hs


Circuit: **.subckt inv_tb

Doing analysis at TEMP = -40.000000 and TNOM = -40.000000


Initial Transient Solution
--------------------------

Node                                   Voltage
----                                   -------
vdd                                        3.3
vin                                          0
vout                                       3.3
vin#branch                                   0
vdd#branch                        -3.31005e-12


No. of Data Rows : 436
tphl                =  3.305978e-11 targ=  2.332113e-10 trig=  2.001515e-10
tplh                =  1.102644e-11 targ=  1.128749e-10 trig=  1.018485e-10
(tplh+tphl)/2 = 2.204311e-11
Note: Simulation executed from .control section 
