Warning: m=xx on .subckt line will override multiplier m hierarchy!


Note: Compatibility modes selected: hs


Circuit: **.subckt inv_tb

Doing analysis at TEMP = -40.000000 and TNOM = -40.000000


Initial Transient Solution
--------------------------

Node                                   Voltage
----                                   -------
vdd                                        3.3
vin                                          0
vout                                       3.3
vin#branch                                   0
vdd#branch                        -3.31173e-12

 Reference value :  2.61618e-10 Reference value :  2.69618e-10
No. of Data Rows : 459
tphl                =  2.988762e-11 targ=  2.300391e-10 trig=  2.001515e-10
tplh                =  1.361449e-11 targ=  1.154630e-10 trig=  1.018485e-10
(tplh+tphl)/2 = 2.175105e-11
Note: Simulation executed from .control section 
