Warning: m=xx on .subckt line will override multiplier m hierarchy!


Note: Compatibility modes selected: hs


Circuit: **.subckt inv_tb

Doing analysis at TEMP = 125.000000 and TNOM = 125.000000


Initial Transient Solution
--------------------------

Node                                   Voltage
----                                   -------
vdd                                        3.3
vin                                          0
vout                                       3.3
vin#branch                                   0
vdd#branch                        -4.79496e-12


No. of Data Rows : 451
tphl                =  1.012067e-10 targ=  3.013582e-10 trig=  2.001515e-10
tplh                =  9.828070e-11 targ=  2.001292e-10 trig=  1.018485e-10
(tplh+tphl)/2 = 9.974370e-11
Note: Simulation executed from .control section 
