Warning: m=xx on .subckt line will override multiplier m hierarchy!


Note: Compatibility modes selected: hs


Circuit: **.subckt inv_tb

Doing analysis at TEMP = -40.000000 and TNOM = -40.000000


Initial Transient Solution
--------------------------

Node                                   Voltage
----                                   -------
vdd                                        3.3
vin                                          0
vout                                       3.3
vin#branch                                   0
vdd#branch                         -3.3101e-12


No. of Data Rows : 433
tphl                =  9.369017e-12 targ=  2.095205e-10 trig=  2.001515e-10
tplh                =  2.706865e-12 targ=  1.045553e-10 trig=  1.018485e-10
(tplh+tphl)/2 = 6.037941e-12
Note: Simulation executed from .control section 
