Warning: m=xx on .subckt line will override multiplier m hierarchy!


Note: Compatibility modes selected: hs


Circuit: **.subckt inv_tb

Doing analysis at TEMP = 25.000000 and TNOM = 25.000000


Initial Transient Solution
--------------------------

Node                                   Voltage
----                                   -------
vdd                                        3.3
vin                                          0
vout                                       3.3
vin#branch                                   0
vdd#branch                        -3.31601e-12


No. of Data Rows : 456
tphl                =  4.785931e-11 targ=  2.480108e-10 trig=  2.001515e-10
tplh                =  2.045410e-11 targ=  1.223026e-10 trig=  1.018485e-10
(tplh+tphl)/2 = 3.415670e-11
Note: Simulation executed from .control section 
