Warning: m=xx on .subckt line will override multiplier m hierarchy!


Note: Compatibility modes selected: hs


Circuit: **.subckt inv_tb

Doing analysis at TEMP = -40.000000 and TNOM = -40.000000


Initial Transient Solution
--------------------------

Node                                   Voltage
----                                   -------
vdd                                        3.3
vin                                          0
vout                                       3.3
vin#branch                                   0
vdd#branch                        -3.87968e-12

 Reference value :  2.00000e-14
No. of Data Rows : 450
tphl                =  9.283966e-12 targ=  2.094355e-10 trig=  2.001515e-10
tplh                =  3.145877e-12 targ=  1.049944e-10 trig=  1.018485e-10
(tplh+tphl)/2 = 6.214921e-12
Note: Simulation executed from .control section 
