Warning: m=xx on .subckt line will override multiplier m hierarchy!


Note: Compatibility modes selected: hs


Circuit: **.subckt inv_tb

Doing analysis at TEMP = 125.000000 and TNOM = 125.000000


Initial Transient Solution
--------------------------

Node                                   Voltage
----                                   -------
vdd                                        3.3
vin                                          0
vout                                       3.3
vin#branch                                   0
vdd#branch                        -7.32942e-12

 Reference value :  2.00000e-14 Reference value :  4.87543e-13 Reference value :  1.00969e-12
No. of Data Rows : 442
tphl                =  6.927422e-11 targ=  2.694257e-10 trig=  2.001515e-10
tplh                =  4.241213e-11 targ=  1.442606e-10 trig=  1.018485e-10
(tplh+tphl)/2 = 5.584317e-11
Note: Simulation executed from .control section 
