Warning: m=xx on .subckt line will override multiplier m hierarchy!


Note: Compatibility modes selected: hs


Circuit: **.subckt inv_tb

Doing analysis at TEMP = -40.000000 and TNOM = -40.000000


Initial Transient Solution
--------------------------

Node                                   Voltage
----                                   -------
vdd                                        3.3
vin                                          0
vout                                       3.3
vin#branch                                   0
vdd#branch                        -3.31099e-12

 Reference value :  4.00000e-14 Reference value :  6.40000e-13
No. of Data Rows : 434
tphl                =  1.035387e-11 targ=  2.105054e-10 trig=  2.001515e-10
tplh                =  3.380062e-12 targ=  1.052285e-10 trig=  1.018485e-10
(tplh+tphl)/2 = 6.866966e-12
Note: Simulation executed from .control section 
