Warning: m=xx on .subckt line will override multiplier m hierarchy!


Note: Compatibility modes selected: hs


Circuit: **.subckt inv_tb

Doing analysis at TEMP = -40.000000 and TNOM = -40.000000


Initial Transient Solution
--------------------------

Node                                   Voltage
----                                   -------
vdd                                        3.3
vin                                          0
vout                                       3.3
vin#branch                                   0
vdd#branch                        -3.31009e-12

 Reference value :  8.00000e-14 Reference value :  1.00000e-12
No. of Data Rows : 432
tphl                =  1.441714e-11 targ=  2.145687e-10 trig=  2.001515e-10
tplh                =  5.545921e-12 targ=  1.073944e-10 trig=  1.018485e-10
(tplh+tphl)/2 = 9.981530e-12
Note: Simulation executed from .control section 
