Warning: m=xx on .subckt line will override multiplier m hierarchy!


Note: Compatibility modes selected: hs


Circuit: **.subckt inv_tb

Doing analysis at TEMP = -40.000000 and TNOM = -40.000000


Initial Transient Solution
--------------------------

Node                                   Voltage
----                                   -------
vdd                                        3.3
vin                                          0
vout                                       3.3
vin#branch                                   0
vdd#branch                        -3.31002e-12


No. of Data Rows : 431
tphl                =  2.967509e-11 targ=  2.298266e-10 trig=  2.001515e-10
tplh                =  9.622613e-12 targ=  1.114711e-10 trig=  1.018485e-10
(tplh+tphl)/2 = 1.964885e-11
Note: Simulation executed from .control section 
