Warning: m=xx on .subckt line will override multiplier m hierarchy!


Note: Compatibility modes selected: hs


Circuit: **.subckt inv_tb

Doing analysis at TEMP = 25.000000 and TNOM = 25.000000


Initial Transient Solution
--------------------------

Node                                   Voltage
----                                   -------
vdd                                        3.3
vin                                          0
vout                                       3.3
vin#branch                                   0
vdd#branch                        -7.33969e-11

 Reference value :  3.13304e-10
No. of Data Rows : 452
tphl                =  1.188760e-11 targ=  2.120391e-10 trig=  2.001515e-10
tplh                =  5.717595e-12 targ=  1.075661e-10 trig=  1.018485e-10
(tplh+tphl)/2 = 8.802597e-12
Note: Simulation executed from .control section 
