Warning: m=xx on .subckt line will override multiplier m hierarchy!


Note: Compatibility modes selected: hs


Circuit: **.subckt inv_tb

Doing analysis at TEMP = 125.000000 and TNOM = 125.000000


Initial Transient Solution
--------------------------

Node                                   Voltage
----                                   -------
vdd                                        3.3
vin                                          0
vout                                       3.3
vin#branch                                   0
vdd#branch                        -1.79789e-11

 Reference value :  4.00000e-14 Reference value :  1.00000e-12 Reference value :  2.96000e-12
No. of Data Rows : 431
tphl                =  1.850796e-11 targ=  2.186595e-10 trig=  2.001515e-10
tplh                =  8.217383e-12 targ=  1.100659e-10 trig=  1.018485e-10
(tplh+tphl)/2 = 1.336267e-11
Note: Simulation executed from .control section 
