Warning: m=xx on .subckt line will override multiplier m hierarchy!


Note: Compatibility modes selected: hs


Circuit: **.subckt inv_tb

Doing analysis at TEMP = 125.000000 and TNOM = 125.000000


Initial Transient Solution
--------------------------

Node                                   Voltage
----                                   -------
vdd                                        3.3
vin                                          0
vout                                   3.29999
vin#branch                                   0
vdd#branch                        -1.33852e-09

 Reference value :  2.00000e-14 Reference value :  1.00000e-12 Reference value :  2.96000e-12
No. of Data Rows : 438
tphl                =  1.355004e-11 targ=  2.137016e-10 trig=  2.001515e-10
tplh                =  5.702572e-12 targ=  1.075511e-10 trig=  1.018485e-10
(tplh+tphl)/2 = 9.626306e-12
Note: Simulation executed from .control section 
