Warning: m=xx on .subckt line will override multiplier m hierarchy!


Note: Compatibility modes selected: hs


Circuit: **.subckt inv_tb

Doing analysis at TEMP = 125.000000 and TNOM = 125.000000


Initial Transient Solution
--------------------------

Node                                   Voltage
----                                   -------
vdd                                        3.3
vin                                          0
vout                                       3.3
vin#branch                                   0
vdd#branch                        -2.34224e-10


No. of Data Rows : 450
tphl                =  6.452154e-11 targ=  2.646731e-10 trig=  2.001515e-10
tplh                =  3.966739e-11 targ=  1.415159e-10 trig=  1.018485e-10
(tplh+tphl)/2 = 5.209446e-11
Note: Simulation executed from .control section 
