Warning: m=xx on .subckt line will override multiplier m hierarchy!


Note: Compatibility modes selected: hs


Circuit: **.subckt inv_tb

Doing analysis at TEMP = 25.000000 and TNOM = 25.000000


Initial Transient Solution
--------------------------

Node                                   Voltage
----                                   -------
vdd                                        3.3
vin                                          0
vout                                       3.3
vin#branch                                   0
vdd#branch                        -3.45223e-12

 Reference value :  4.00000e-14
No. of Data Rows : 433
tphl                =  1.627623e-11 targ=  2.164277e-10 trig=  2.001515e-10
tplh                =  7.221962e-12 targ=  1.090704e-10 trig=  1.018485e-10
(tplh+tphl)/2 = 1.174910e-11
Note: Simulation executed from .control section 
