Warning: m=xx on .subckt line will override multiplier m hierarchy!


Note: Compatibility modes selected: hs


Circuit: **.subckt inv_tb

Doing analysis at TEMP = 125.000000 and TNOM = 125.000000


Initial Transient Solution
--------------------------

Node                                   Voltage
----                                   -------
vdd                                        3.3
vin                                          0
vout                                       3.3
vin#branch                                   0
vdd#branch                        -5.26556e-11

 Reference value :  2.00000e-14
No. of Data Rows : 436
tphl                =  2.488707e-11 targ=  2.250386e-10 trig=  2.001515e-10
tplh                =  1.541146e-11 targ=  1.172599e-10 trig=  1.018485e-10
(tplh+tphl)/2 = 2.014926e-11
Note: Simulation executed from .control section 
