Warning: m=xx on .subckt line will override multiplier m hierarchy!


Note: Compatibility modes selected: hs


Circuit: **.subckt inv_tb

Doing analysis at TEMP = 25.000000 and TNOM = 25.000000


Initial Transient Solution
--------------------------

Node                                   Voltage
----                                   -------
vdd                                        3.3
vin                                          0
vout                                       3.3
vin#branch                                   0
vdd#branch                        -3.36545e-12

 Reference value :  4.00000e-14 Reference value :  1.00000e-12 Reference value :  2.28933e-12 Reference value :  8.28933e-12
No. of Data Rows : 433
tphl                =  1.393430e-11 targ=  2.140858e-10 trig=  2.001515e-10
tplh                =  4.160989e-12 targ=  1.060095e-10 trig=  1.018485e-10
(tplh+tphl)/2 = 9.047644e-12
Note: Simulation executed from .control section 
