Warning: m=xx on .subckt line will override multiplier m hierarchy!


Note: Compatibility modes selected: hs


Circuit: **.subckt inv_tb

Doing analysis at TEMP = 25.000000 and TNOM = 25.000000


Initial Transient Solution
--------------------------

Node                                   Voltage
----                                   -------
vdd                                        3.3
vin                                          0
vout                                       3.3
vin#branch                                   0
vdd#branch                        -3.55949e-12

 Reference value :  2.00000e-14 Reference value :  6.40000e-13 Reference value :  2.82151e-10
No. of Data Rows : 433
tphl                =  1.695259e-11 targ=  2.171041e-10 trig=  2.001515e-10
tplh                =  7.356334e-12 targ=  1.092048e-10 trig=  1.018485e-10
(tplh+tphl)/2 = 1.215446e-11
Note: Simulation executed from .control section 
