Warning: m=xx on .subckt line will override multiplier m hierarchy!


Note: Compatibility modes selected: hs


Circuit: **.subckt inv_tb

Doing analysis at TEMP = 25.000000 and TNOM = 25.000000


Initial Transient Solution
--------------------------

Node                                   Voltage
----                                   -------
vdd                                        3.3
vin                                          0
vout                                       3.3
vin#branch                                   0
vdd#branch                        -3.57255e-12


No. of Data Rows : 431
tphl                =  1.208051e-11 targ=  2.122320e-10 trig=  2.001515e-10
tplh                =  4.346996e-12 targ=  1.061955e-10 trig=  1.018485e-10
(tplh+tphl)/2 = 8.213753e-12
Note: Simulation executed from .control section 
